src/test/resources/hvdc_alignment/de_igm.uct
##C 2007.05.01

##N
##ZDE
AAAAA_31 BAZ          0 2 157.05 0.00000 0.00000 -133.08 25.1940 0.32657 -159.67 74.0759 -44.722                               F
BBBBB_32 BAZ          0 2 157.05 0.00000 0.00000 -128.70 25.1940 0.30434 -159.70 72.3475 -46.077                               F
##ZXX
XBA_KF31 INTERNAL     0 0        -53.939 0.00000 -0.0000 -24.871
XBA_KF32 INTERNAL     0 0        -52.596 0.00000 -0.0000 -24.459
##L
XBA_KF31 AAAAA_31 1 0 0.4418 1.4680 735.1327    840 155
XBA_KF32 BBBBB_32 1 0 0.4418 1.5039 746.1283    840 156
##T
##R
